[TITLE]

[OPTIONS]
FLOW_UNITS           CMS
INFILTRATION         CURVE_NUMBER
FLOW_ROUTING         DYNWAVE
START_DATE           11/19/2012
START_TIME           00:00:00
REPORT_START_DATE    11/19/2012
REPORT_START_TIME    00:05:00
END_DATE             11/19/2012
END_TIME             20:00:00
SWEEP_START          01/01
SWEEP_END            12/31
DRY_DAYS             0
REPORT_STEP          00:10:00
WET_STEP             00:05:00
DRY_STEP             01:00:00
ROUTING_STEP         0:00:30 
ALLOW_PONDING        YES
INERTIAL_DAMPING     PARTIAL
VARIABLE_STEP        0.75
LENGTHENING_STEP     0
MIN_SURFAREA         0
NORMAL_FLOW_LIMITED  BOTH
SKIP_STEADY_STATE    NO
FORCE_MAIN_EQUATION  H-W
LINK_OFFSETS         DEPTH
MIN_SLOPE            0

[EVAPORATION]
;;Type       Parameters
;;---------- ----------
CONSTANT     0.0
DRY_ONLY     NO

[RAINGAGES]
;;               Rain      Time   Snow   Data      
;;Name           Type      Intrvl Catch  Source    
;;-------------- --------- ------ ------ ----------
1                VOLUME    0:05   1.0    TIMESERIES ChuvaProjRP-2A  

[SUBCATCHMENTS]
;;                                                 Total    Pcnt.             Pcnt.    Curb     Snow    
;;Name           Raingage         Outlet           Area     Imperv   Width    Slope    Length   Pack    
;;-------------- ---------------- ---------------- -------- -------- -------- -------- -------- --------
1                1                51               713.6    0        4194.31  5.53     0                        
2                1                57               760.0    0        4355.74  4.62     0                        
3                1                64               591.9    0        3749.21  4.61     0                        
4                1                F1               235.9    0        2159.05  4.51     0                        
5                1                70               604.3    0        3796.21  4.28     0                        
6                1                81               368.4    30       2820.80  4.15     0                        
7                1                78               500.0    75       3388.27  3.61     0                        
8                1                94               264.9    0        2314.44  3.76     0                        
9                1                88               827.0    75       4582.43  4.03     0                        
10               1                99               399.0    0        2959.27  3.32     0                        
11               1                107              625.8    0        3876.76  3.93     0                        
12               1                113              545.5    0        3570.16  4.00     0                        
13               1                124              1453.7   0        6427.93  3.60     0                        
14               1                127              125.8    0        1480.68  4.07     0                        
15               1                140              90.2     0        1212.86  3.69     0                        
16               1                143              280.6    0        2395.94  4.09     0                        
17               1                138              923.0    0        4894.64  3.56     0                        
18               1                F10              571.2    0        3670     3.58     0                        
19               1                156              795.6    0        4470.03  3.45     0                        
20               1                162              395.7    0        2944.03  3.57     0                        
21               1                166              737.6    0        4278.41  4.10     0                        
22               1                171              259.1    0        2283.93  2.94     0                        
23               1                174              221.0    0        2076.17  2.70     0                        
24               1                179              771.5    0        4395.47  2.92     0                        
25               1                184              846.0    0        4645.44  4.19     0                        
26               1                188              357.6    0        2771.06  3.52     0                        
27               1                192              427.2    0        3082.80  5.67     0                        
28               1                198              961.1    0        5014.82  4.26     0                        
29               1                204              485.9    0        3330.73  5.18     0                        
30               1                208              688.8    0        4106.11  4.13     0                        
31               1                216              970.2    0        5043.28  3.82     0                        
32               1                221              428.8    0        3089.97  5.60     0                        
33               1                225              303.0    0        2820.80  5.28     0                        
34               1                232              1038.9   0        5254.63  3.93     0                        
35               1                235              279.8    0        2391.69  4.09     0                        
36               1                B5               493.4    0        3361.27  3.74     0                        
37               1                240              361.8    0        2790.26  3.60     0                        
38               1                246              870.1    0        4724.09  4.44     0                        
39               1                250              943.7    0        4960.20  4.30     0                        
40               1                B7               643.2    0        3941.02  4.25     0                        
41               1                B8               781.5    0        4429.34  4.42     0                        
42               1                B9               372.5    0        2839.77  3.67     0                        

[SUBAREAS]
;;Subcatchment   N-Imperv   N-Perv     S-Imperv   S-Perv     PctZero    RouteTo    PctRouted 
;;-------------- ---------- ---------- ---------- ---------- ---------- ---------- ----------
1                0.012      0.15       0.05       0.05       0          OUTLET    
2                0.012      0.15       0.05       0.05       0          OUTLET    
3                0.012      0.15       0.05       0.05       0          OUTLET    
4                0.012      0.15       0.05       0.05       0          OUTLET    
5                0.012      0.15       0.05       0.05       0          OUTLET    
6                0.012      0.15       0.05       0.05       15         OUTLET    
7                0.012      0.15       0.05       0.05       0          OUTLET    
8                0.012      0.15       0.05       0.05       0          OUTLET    
9                0.012      0.15       0.05       0.05       30         OUTLET    
10               0.012      0.15       0.05       0.05       0          OUTLET    
11               0.012      0.15       0.05       0.05       0          OUTLET    
12               0.012      0.15       0.05       0.05       0          OUTLET    
13               0.012      0.15       0.05       0.05       0          OUTLET    
14               0.012      0.15       0.05       0.05       0          OUTLET    
15               0.012      0.15       0.05       0.05       0          OUTLET    
16               0.012      0.15       0.05       0.05       0          OUTLET    
17               0.012      0.15       0.05       0.05       0          OUTLET    
18               0.012      0.15       0.05       0.05       0          OUTLET    
19               0.012      0.15       0.05       0.05       0          OUTLET    
20               0.012      0.15       0.05       0.05       0          OUTLET    
21               0.012      0.15       0.05       0.05       0          OUTLET    
22               0.012      0.15       0.05       0.05       0          OUTLET    
23               0.012      0.15       0.05       0.05       0          OUTLET    
24               0.012      0.15       0.05       0.05       0          OUTLET    
25               0.012      0.15       0.05       0.05       0          OUTLET    
26               0.012      0.15       0.05       0.05       0          OUTLET    
27               0.012      0.15       0.05       0.05       0          OUTLET    
28               0.012      0.15       0.05       0.05       0          OUTLET    
29               0.012      0.15       0.05       0.05       0          OUTLET    
30               0.012      0.15       0.05       0.05       0          OUTLET    
31               0.012      0.15       0.05       0.05       0          OUTLET    
32               0.012      0.15       0.05       0.05       0          OUTLET    
33               0.012      0.15       0.05       0.05       0          OUTLET    
34               0.012      0.15       0.05       0.05       0          OUTLET    
35               0.012      0.15       0.05       0.05       0          OUTLET    
36               0.012      0.15       0.05       0.05       0          OUTLET    
37               0.012      0.15       0.05       0.05       0          OUTLET    
38               0.012      0.15       0.05       0.05       0          OUTLET    
39               0.012      0.15       0.05       0.05       0          OUTLET    
40               0.012      0.15       0.05       0.05       0          OUTLET    
41               0.012      0.15       0.05       0.05       0          OUTLET    
42               0.012      0.15       0.05       0.05       0          OUTLET    

[INFILTRATION]
;;Subcatchment   CurveNum   HydCon     DryTime   
;;-------------- ---------- ---------- ----------
1                62         0.5        8         
2                63         0.5        8         
3                63         0.5        8         
4                63         0.5        8         
5                59         0.5        8         
6                68         0.5        8         
7                68         0.5        8         
8                70         0.5        8         
9                85         0.5        8         
10               68         0.5        8         
11               68         0.5        8         
12               68         0.5        8         
13               68         0.5        8         
14               60         0.5        8         
15               68         0.5        8         
16               68         0.5        8         
17               68         0.5        8         
18               68         0.5        8         
19               68         0.5        8         
20               59         0.5        8         
21               68         0.5        8         
22               60         0.5        8         
23               57         0.5        8         
24               60         0.5        8         
25               62         0.5        8         
26               62         0.5        8         
27               62         0.5        8         
28               62         0.5        8         
29               68         0.5        8         
30               68         0.5        8         
31               68         0.5        8         
32               62         0.5        8         
33               62         0.5        8         
34               68         0.5        8         
35               68         0.5        8         
36               68         0.5        8         
37               68         0.5        8         
38               68         0.5        8         
39               62         0.5        8         
40               62         0.5        8         
41               68         0.5        8         
42               68         0.5        8         

[JUNCTIONS]
;;               Invert     Max.       Init.      Surcharge  Ponded    
;;Name           Elev.      Depth      Depth      Depth      Area      
;;-------------- ---------- ---------- ---------- ---------- ----------
43               571        1.3        0          0          0         
44               570        1.3        0          0          0         
45               569        1.3        0          0          0         
46               567        1.3        0          0          0         
47               566        1.3        0          0          0         
R1               564        1.3        0          0          0         
49               569        1          0          0          0         
50               899        1.3        0          0          0         
51               891        0.6        0          0          0         
52               563        1.3        0          0          0         
53               562        1.3        0          0          0         
54               563        1          0          0          0         
55               560        1.3        0          0          0         
56               559        1.3        0          0          0         
57               557        1.3        0          0          0         
58               556        1.3        0          0          0         
59               562        1          0          0          0         
60               560        1          0          0          0         
61               558        1          0          0          0         
62               554        1.3        0          0          0         
63               530        1.3        0          0          0         
64               513        1.3        0          0          0         
65               554        1.5        0          0          0         
66               553        1.5        0          0          0         
67               550        1.7        0          0          0         
68               554        1.7        0          0          0         
R2               552        1.7        0          0          0         
70               549        1.5        0          0          0         
71               512        1.3        0          0          0         
72               510        2.2        0          0          0         
F1               508        2.2        0          0          0         
74               512        1          0          0          0         
75               500        2.2        0          0          0         
76               515        1.5        0          0          0         
F2               513        1.6        0          0          0         
78               512        1.6        0          0          0         
F3               496        1.5        0          0          0         
80               490        1.5        0          0          0         
81               480        1.5        0          0          0         
82               560        1.6        0          0          0         
83               559        1.5        0          0          0         
84               526        1.5        0          0          0         
85               510        1.55       0          0          0         
86               498        2.2        0          0          0         
87               490        1.9        0          0          0         
88               487        1.9        0          0          0         
89               513        1.2        0          0          0         
90               479        1.5        0          0          0         
91               473        1.5        0          0          0         
92               505        1          0          0          0         
93               500        1          0          0          0         
94               495        1.5        0          0          0         
95               505        1          0          0          0         
96               503        1          0          0          0         
97               500        1          0          0          0         
98               501        1          0          0          0         
99               492        1.5        0          0          0         
F4               491        2          0          0          0         
101              489        2          0          0          0         
102              487        2          0          0          0         
103              485        2          0          0          0         
104              488        1          0          0          0         
F5               481        1          0          0          0         
106              489        1          0          0          0         
107              476        3          0          0          0         
108              470        3          0          0          0         
109              469        3          0          0          0         
110              500        1          0          0          0         
111              467        2.55       0          0          0         
F6               466.9      2.55       0          0          0         
113              466.5      2.5        0          0          0         
114              500        1          0          0          0         
115              490        1          0          0          0         
116              485        1          0          0          0         
117              476        2          0          0          0         
118              471        2          0          0          0         
119              492        2          0          0          0         
120              484        2          0          0          0         
121              479        2          0          0          0         
122              469        1.9        0          0          0         
F7               464        1.9        0          0          0         
124              462        1.9        0          0          0         
125              467        2.5        0          0          0         
F8               467        1.7        0          0          0         
127              466        2          0          0          0         
128              503        1          0          0          0         
129              500        1          0          0          0         
130              498        1.5        0          0          0         
131              500        1.5        0          0          0         
132              495        1.5        0          0          0         
133              492        1.5        0          0          0         
134              494        1          0          0          0         
135              489        2          0          0          0         
136              481        2          0          0          0         
F9               477        2          0          0          0         
138              772        2          0          0          0         
139              465        2          0          0          0         
140              464.9      2          0          0          0         
141              464        2          0          0          0         
142              475        1          0          0          0         
143              469        1          0          0          0         
144              463        1.5        0          0          0         
145              461.8      2          0          0          0         
146              461        2          0          0          0         
F10              459        2          0          0          0         
148              481        1.5        0          0          0         
149              477        1.5        0          0          0         
150              475        1.5        0          0          0         
151              472        1.5        0          0          0         
152              469        1.5        0          0          0         
153              473        1          0          0          0         
154              471        1          0          0          0         
F11              465        1.5        0          0          0         
156              463        1.5        0          0          0         
157              456        2          0          0          0         
F12              452        1.5        0          0          0         
159              451.7      1.5        0          0          0         
160              459        1          0          0          0         
161              454        1.5        0          0          0         
162              451.5      1.5        0          0          0         
163              451        1.5        0          0          0         
164              450.7      2          0          0          0         
165              450.3      2          0          0          0         
166              450        4          0          0          0         
F13              450        4          0          0          0         
168              450        4          0          0          0         
169              451        2          0          0          0         
170              449.8      4          0          0          0         
171              449        4          0          0          0         
J                449        5          0          0          0         
173              445        6          0          0          0         
174              690        6          0          0          0         
175              720        1          0          0          0         
176              718        1          0          0          0         
177              715        1          0          0          0         
178              711        1          0          0          0         
179              707        1          0          0          0         
180              500        1.5        0          0          0         
181              497        1.5        0          0          0         
182              495        2          0          0          0         
183              491        2          0          0          0         
184              487        2          0          0          0         
185              499        2          0          0          0         
186              495        2          0          0          0         
187              489        2          0          0          0         
188              486        2          0          0          0         
B1               484        3.7        0          0          0         
190              480        3.7        0          0          0         
191              478        3.7        0          0          0         
192              477        4          0          0          0         
193              505        2          0          0          0         
194              499        2.5        0          0          0         
195              493        2.5        0          0          0         
196              489        2.5        0          0          0         
197              482        2.5        0          0          0         
198              479        2.5        0          0          0         
199              475        3          0          0          0         
200              473        3          0          0          0         
201              470        3          0          0          0         
B3               468        2          0          0          0         
203              466        2          0          0          0         
204              462        2          0          0          0         
205              508        1.5        0          0          0         
206              505        1.5        0          0          0         
207              501        1.5        0          0          0         
208              495        1          0          0          0         
209              516        2          0          0          0         
210              513        2          0          0          0         
211              510        1          0          0          0         
212              512        1.5        0          0          0         
213              507        1.5        0          0          0         
214              509        1.5        0          0          0         
215              511        1.5        0          0          0         
216              504        2          0          0          0         
217              500        2          0          0          0         
218              496        2          0          0          0         
B2               492        2.5        0          0          0         
220              489        2.5        0          0          0         
221              486        2.5        0          0          0         
222              489        2          0          0          0         
223              483        2.5        0          0          0         
224              478        2.5        0          0          0         
225              472        2.5        0          0          0         
226              505        1          0          0          0         
227              502        1          0          0          0         
228              506        1          0          0          0         
229              497        1          0          0          0         
230              493        1          0          0          0         
B4               489        1          0          0          0         
232              484        1          0          0          0         
233              459        2          0          0          0         
234              465        1          0          0          0         
235              463        1          0          0          0         
236              470        1          0          0          0         
237              460        1          0          0          0         
B5               456        1.9        0          0          0         
239              453        1.9        0          0          0         
240              451        1.5        0          0          0         
241              759        1          0          0          0         
242              469        1.9        0          0          0         
243              449        1.9        0          0          0         
B6               440        1.9        0          0          0         
245              437        1.9        0          0          0         
246              435        1          0          0          0         
247              478        1          0          0          0         
248              482        1          0          0          0         
249              479        1          0          0          0         
250              474        1          0          0          0         
251              480        1.5        0          0          0         
252              472        1          0          0          0         
253              466        1          0          0          0         
254              460        1          0          0          0         
255              463        1          0          0          0         
B7               455        1          0          0          0         
257              433        1.5        0          0          0         
258              430        2          0          0          0         
259              429        2          0          0          0         
B8               427        2          0          0          0         
261              431        1.5        0          0          0         
262              425        2          0          0          0         
263              423        4          0          0          0         
264              421        4          0          0          0         
B9               419        4          0          0          0         

[OUTFALLS]
;;               Invert     Outfall    Stage/Table      Tide
;;Name           Elev.      Type       Time Series      Gate
;;-------------- ---------- ---------- ---------------- ----
73               0          FREE                        NO

[CONDUITS]
;;               Inlet            Outlet                      Manning    Inlet      Outlet     Init.      Max.      
;;Name           Node             Node             Length     N          Offset     Offset     Flow       Flow      
;;-------------- ---------------- ---------------- ---------- ---------- ---------- ---------- ---------- ----------
1                43               44               493        0.04       0          0          0.04       0         
2                44               45               895        0.04       0          0          0.04       0         
3                45               46               884        0.04       0          0          0.04       0         
4                46               47               461        0.04       0          0          0.04       0         
5                47               R1               441        0.08       0          0          0.18       0         
6                R1               51               333        0.04       0          0          0.04       0         
7                49               50               306        0.04       0          0          0.02       0         
8                50               R1               830        0.04       0          0          0.02       0         